7mby_134694162_uff_E=2047.93_0
 OpenBabel12012413253D

 93 96  0  0  0  0  0  0  0  0999 V2000
  101.7550   92.5850   94.4640 C   0  0  0  0  0
  100.7490   91.9620   93.6470 N   0  0  0  0  0
   99.7250   91.2020   94.1330 C   0  0  0  0  0
   99.5630   91.0210   95.3260 O   0  0  0  0  0
  100.8350   92.0810   92.6250 H   0  0  0  0  0
   98.7600   90.6440   93.1750 C   0  0  0  0  0
   98.5540   91.6690   92.1990 N   0  0  0  0  0
   97.4930   92.4590   92.2300 C   0  0  0  0  0
   96.5710   92.2320   93.0220 O   0  0  0  0  0
   99.3110   91.9300   91.5380 H   0  0  0  0  0
   97.4910   93.6830   91.4080 C   0  0  0  0  0
   96.2360   94.4500   91.5640 N   0  0  0  0  0
   96.1510   95.6620   92.1790 C   0  0  0  0  0
   95.0650   96.2290   92.2510 O   0  0  0  0  0
   95.3790   94.0660   91.1410 H   0  0  0  0  0
   97.3350   96.2630   92.8470 C   0  0  0  0  0
   98.1870   97.0530   91.9580 N   0  0  0  0  0
   99.5090   96.7640   91.7470 C   0  0  0  0  0
  100.0690   95.8910   92.4010 O   0  0  0  0  0
   97.7470   97.7490   91.3380 H   0  0  0  0  0
  100.3040   97.4790   90.6820 C   0  0  0  0  0
   99.8950   97.0560   89.3420 N   0  0  0  0  0
  100.3270   96.1280   89.1270 H   0  0  0  0  0
  100.2180   97.7450   88.6250 H   0  0  0  0  0
  101.8130   97.2600   90.8980 C   0  0  0  0  0
  102.3470   96.1790   90.0060 C   0  0  0  0  0
  102.9870   96.4650   89.0050 O   0  0  0  0  0
  102.1300   94.8860   90.3270 O   0  0  0  0  0
  102.3460   94.1690   89.7140 H   0  0  0  0  0
   96.9050   96.7130   94.2740 C   0  0  0  0  0
   97.2110   95.8750   95.4590 C   0  0  0  0  0
   97.6060   94.5430   95.3470 C   0  0  0  0  0
   97.5370   93.7140   96.4360 C   0  0  0  0  0
   97.1430   94.2010   97.6680 C   0  0  0  0  0
   96.8960   95.5810   97.8370 C   0  0  0  0  0
   96.9280   96.4150   96.7230 C   0  0  0  0  0
   97.0110   93.2980   98.6520 O   0  0  0  0  0
   97.6930   93.4240  100.1770 S   0  0  0  0  0
   96.6450   93.2610  101.2850 O   0  0  0  0  0
   97.3750   91.9300  100.0270 O   0  0  0  0  0
   99.1840   92.6440  100.4920 O   0  0  0  0  0
   99.5570   92.4640   99.5960 H   0  0  0  0  0
   97.6730   93.4170   89.9100 C   0  0  0  0  0
   96.2710   93.2540   89.3120 C   0  0  0  0  0
   96.0200   94.3090   87.8690 S   0  0  0  0  0
   97.7660   94.4220   87.4080 C   0  0  0  0  0
  101.2620   93.9790   94.9500 C   0  0  0  0  0
  101.1770   94.2190   96.4570 C   0  0  0  0  0
  100.8410   95.4420   96.9940 C   0  0  0  0  0
  100.7130   95.2810   98.3450 C   0  0  0  0  0
  100.6030   96.6640   96.3730 C   0  0  0  0  0
  100.9660   94.0110   98.6980 N   0  0  0  0  0
  100.3440   96.3350   99.1760 C   0  0  0  0  0
  101.2600   93.3460   97.5590 C   0  0  0  0  0
  100.9210   93.6070   99.6600 H   0  0  0  0  0
  100.1100   97.5900   98.5790 C   0  0  0  0  0
  100.2400   97.7520   97.1800 C   0  0  0  0  0
  103.0850   92.5470   93.6870 C   0  0  0  0  0
  103.2550   93.3350   92.7670 O   0  0  0  0  0
  104.1180   91.7620   94.1210 N   0  0  0  0  0
  103.9480   91.1090   94.8840 H   0  0  0  0  0
  105.4820   91.7810   93.6150 C   0  0  0  0  0
  106.5120   91.3820   94.7210 C   0  0  0  0  0
  105.9840   91.5560   96.1730 C   0  0  0  0  0
  106.8550   90.5980   97.4420 S   0  0  0  0  0
  105.9400   89.0300   97.2520 C   0  0  0  0  0
  105.5460   90.7750   92.4690 C   0  0  0  0  0
  104.9460   89.7160   92.6030 O   0  0  0  0  0
  106.2470   90.9790   91.3200 N   0  0  0  0  0
  106.3170   90.1780   90.6710 H   0  0  0  0  0
  106.8390   92.2350   90.8730 C   0  0  0  0  0
  105.8380   92.8480   89.8560 C   0  0  0  0  0
  105.6800   94.3430   89.8540 C   0  0  0  0  0
  106.0680   95.0230   88.9160 O   0  0  0  0  0
  105.0670   94.9300   90.9050 O   0  0  0  0  0
  105.5300   95.0880   91.7400 H   0  0  0  0  0
  108.2060   91.9380   90.3000 C   0  0  0  0  0
  108.3580   91.8470   89.0880 O   0  0  0  0  0
  109.2640   91.7500   91.1440 N   0  0  0  0  0
  109.1150   91.8320   92.1520 H   0  0  0  0  0
  110.5810   91.3970   90.6500 C   0  0  0  0  0
  111.6620   92.2010   91.4050 C   0  0  0  0  0
  112.2820   93.2050   90.4780 C   0  0  0  0  0
  112.3900   94.5400   90.8970 C   0  0  0  0  0
  112.8880   95.5090   90.0290 C   0  0  0  0  0
  113.2920   95.1530   88.7400 C   0  0  0  0  0
  113.2070   93.8220   88.3210 C   0  0  0  0  0
  112.7040   92.8470   89.1860 C   0  0  0  0  0
  110.8310   89.9000   90.7240 C   0  0  0  0  0
  110.0560   89.1950   91.3550 O   0  0  0  0  0
  111.8780   89.3280   90.0880 N   0  0  0  0  0
  112.0120   88.3050   90.1300 H   0  0  0  0  0
  112.5470   89.8960   89.5490 H   0  0  0  0  0
  2  1  1  0  0  0
 58  1  1  0  0  0
  1 47  1  0  0  0
  5  2  1  0  0  0
  2  3  1  0  0  0
  6  3  1  0  0  0
  3  4  2  0  0  0
  7  6  1  0  0  0
 10  7  1  0  0  0
  7  8  1  0  0  0
 11  8  1  0  0  0
  8  9  2  0  0  0
 43 11  1  0  0  0
 11 12  1  0  0  0
 15 12  1  0  0  0
 12 13  1  0  0  0
 13 14  2  0  0  0
 13 16  1  0  0  0
 17 16  2  0  0  0
 16 30  1  0  0  0
 20 17  1  0  0  0
 18 17  1  0  0  0
 21 18  1  0  0  0
 18 19  2  0  0  0
 22 21  1  0  0  0
 21 25  1  0  0  0
 24 22  1  0  0  0
 23 22  1  0  0  0
 26 25  1  0  0  0
 27 26  2  0  0  0
 26 28  1  0  0  0
 29 28  1  0  0  0
 30 31  1  0  0  0
 32 31  2  0  0  0
 31 36  1  0  0  0
 32 33  1  0  0  0
 33 34  2  0  0  0
 34 35  1  0  0  0
 34 37  1  0  0  0
 36 35  2  0  0  0
 37 38  1  0  0  0
 40 38  2  0  0  0
 38 41  1  0  0  0
 38 39  2  0  0  0
 42 41  1  0  0  0
 44 43  1  0  0  0
 45 44  1  0  0  0
 46 45  1  0  0  0
 47 48  1  0  0  0
 48 49  1  0  0  0
 48 54  2  0  0  0
 51 49  2  0  0  0
 49 50  1  0  0  0
 50 52  1  0  0  0
 50 53  2  0  0  0
 51 57  1  0  0  0
 54 52  1  0  0  0
 52 55  1  0  0  0
 56 53  1  0  0  0
 57 56  2  0  0  0
 59 58  2  0  0  0
 58 60  1  0  0  0
 62 60  1  0  0  0
 60 61  1  0  0  0
 67 62  1  0  0  0
 62 63  1  0  0  0
 63 64  1  0  0  0
 64 65  1  0  0  0
 66 65  1  0  0  0
 69 67  1  0  0  0
 67 68  2  0  0  0
 70 69  1  0  0  0
 71 69  1  0  0  0
 72 71  1  0  0  0
 77 71  1  0  0  0
 73 72  1  0  0  0
 74 73  2  0  0  0
 73 75  1  0  0  0
 75 76  1  0  0  0
 78 77  2  0  0  0
 77 79  1  0  0  0
 81 79  1  0  0  0
 79 80  1  0  0  0
 81 89  1  0  0  0
 81 82  1  0  0  0
 83 82  1  0  0  0
 88 83  2  0  0  0
 83 84  1  0  0  0
 85 84  2  0  0  0
 86 85  1  0  0  0
 87 86  2  0  0  0
 87 88  1  0  0  0
 91 89  1  0  0  0
 89 90  2  0  0  0
 93 91  1  0  0  0
 91 92  1  0  0  0
M  RAD 32   1   2   6   3  11   2  21   2  25   3  30   3  32   2  33   2  35   2  36   2  43   3  44   3  46   4  47   3  51   2  53   2  54   2  56   2  57   2  62   2  63   3  64   3  66   4  71   2  72   3  81   2  82   3  84   2  85   2  86   2  87   2  88   2
M  END
>  <Vina Binding Affinity>
-7.3

$$$$
