7MBY_M89V_134694162_uff_E=2047.93_0
 OpenBabel12012415523D

 93 96  0  0  0  0  0  0  0  0999 V2000
  102.7300  101.8250   93.2600 C   0  0  0  0  0
  102.7210  101.3180   94.6050 N   0  0  0  0  0
  103.7950  100.7370   95.2150 C   0  0  0  0  0
  104.8750  100.6360   94.6640 O   0  0  0  0  0
  101.8300  101.3770   95.1230 H   0  0  0  0  0
  103.6410  100.2820   96.6040 C   0  0  0  0  0
  102.8930   99.0660   96.5270 N   0  0  0  0  0
  102.4770   98.4330   97.6120 C   0  0  0  0  0
  102.8580   98.7980   98.7300 O   0  0  0  0  0
  102.5120   98.7350   95.6200 H   0  0  0  0  0
  101.4550   97.3790   97.4760 C   0  0  0  0  0
  101.0840   96.7970   98.7840 N   0  0  0  0  0
   99.8180   96.4340   99.1290 C   0  0  0  0  0
   99.6090   95.9490  100.2370 O   0  0  0  0  0
  101.8370   96.6110   99.4620 H   0  0  0  0  0
   98.6730   96.7050   98.2220 C   0  0  0  0  0
   97.5670   95.7550   98.3530 N   0  0  0  0  0
   97.6310   94.4710   97.8820 C   0  0  0  0  0
   98.5880   94.1000   97.2110 O   0  0  0  0  0
   96.7750   95.9980   98.9660 H   0  0  0  0  0
   96.5520   93.4660   98.2030 C   0  0  0  0  0
   95.3020   94.1320   98.5710 N   0  0  0  0  0
   94.6270   93.4200   98.9340 H   0  0  0  0  0
   94.8760   94.5980   97.7370 H   0  0  0  0  0
   97.0210   92.5090   99.3140 C   0  0  0  0  0
   96.7120   93.0520  100.6770 C   0  0  0  0  0
   95.9250   92.4710  101.4090 O   0  0  0  0  0
   97.3240   94.1790  101.0960 O   0  0  0  0  0
   98.2490   94.1760  101.3830 H   0  0  0  0  0
   98.4930   98.2480   98.1210 C   0  0  0  0  0
   97.8730   98.8630   96.9230 C   0  0  0  0  0
   96.5390   99.2680   96.8990 C   0  0  0  0  0
   95.9120   99.4960   95.7020 C   0  0  0  0  0
   96.6090   99.3960   94.5120 C   0  0  0  0  0
   97.9990   99.1470   94.5260 C   0  0  0  0  0
   98.6270   98.8770   95.7390 C   0  0  0  0  0
   95.8920   99.5410   93.3870 O   0  0  0  0  0
   95.7680   98.3990   92.1670 S   0  0  0  0  0
   94.4450   97.6280   92.2400 O   0  0  0  0  0
   94.7900   99.5060   91.7500 O   0  0  0  0  0
   96.2580   98.8160   90.5800 O   0  0  0  0  0
   95.4120   98.8830   90.0760 H   0  0  0  0  0
  101.8860   96.2180   96.5720 C   0  0  0  0  0
  102.8370   95.3420   97.3950 C   0  0  0  0  0
  104.5160   95.3490   96.7310 S   0  0  0  0  0
  105.2950   96.0840   98.1900 C   0  0  0  0  0
  101.9310  103.1590   93.1850 C   0  0  0  0  0
  100.4700  103.0910   92.7400 C   0  0  0  0  0
   99.4300  102.9680   93.6330 C   0  0  0  0  0
   98.2630  103.0830   92.9300 C   0  0  0  0  0
   99.4420  102.8030   95.0140 C   0  0  0  0  0
   98.5120  103.2610   91.6240 N   0  0  0  0  0
   97.0220  103.0340   93.5580 C   0  0  0  0  0
   99.8560  103.2610   91.4830 C   0  0  0  0  0
   97.8080  103.3980   90.8640 H   0  0  0  0  0
   97.0010  102.8530   94.9560 C   0  0  0  0  0
   98.2100  102.7380   95.6810 C   0  0  0  0  0
  102.2760  100.6880   92.3240 C   0  0  0  0  0
  102.8500  100.5380   91.2540 O   0  0  0  0  0
  101.3630   99.7630   92.7500 N   0  0  0  0  0
  100.8950   99.9140   93.6420 H   0  0  0  0  0
  101.0000   98.5330   92.0620 C   0  0  0  0  0
  100.7700   97.3580   93.0660 C   0  0  0  0  0
  101.7180   96.1440   92.8520 C   0  0  0  0  0
  100.9170   94.5190   92.8320 S   0  0  0  0  0
  102.1320   93.6210   93.8570 C   0  0  0  0  0
   99.7100   98.8150   91.2980 C   0  0  0  0  0
   99.1740   99.9040   91.4610 O   0  0  0  0  0
   99.1110   97.9190   90.4650 N   0  0  0  0  0
   98.1790   98.1760   90.1010 H   0  0  0  0  0
   99.6850   96.6740   89.9690 C   0  0  0  0  0
  100.7200   97.0760   88.8830 C   0  0  0  0  0
  101.5490   95.9780   88.2760 C   0  0  0  0  0
  102.6060   95.6270   88.7790 O   0  0  0  0  0
  101.0880   95.3570   87.1690 O   0  0  0  0  0
  100.6000   95.8340   86.4840 H   0  0  0  0  0
   98.5600   95.8010   89.4640 C   0  0  0  0  0
   98.8010   94.6910   89.0060 O   0  0  0  0  0
   97.2750   96.2660   89.5010 N   0  0  0  0  0
   97.0970   97.1950   89.8890 H   0  0  0  0  0
   96.1680   95.4960   88.9680 C   0  0  0  0  0
   95.2610   95.0100   90.1180 C   0  0  0  0  0
   95.9430   93.9010   90.8640 C   0  0  0  0  0
   96.2260   92.7030   90.1900 C   0  0  0  0  0
   96.7860   91.6280   90.8760 C   0  0  0  0  0
   97.0790   91.7430   92.2380 C   0  0  0  0  0
   96.8190   92.9390   92.9130 C   0  0  0  0  0
   96.2530   94.0180   92.2310 C   0  0  0  0  0
   95.3910   96.2750   87.9200 C   0  0  0  0  0
   94.7780   97.2790   88.2540 O   0  0  0  0  0
   95.3820   95.8940   86.6220 N   0  0  0  0  0
   94.8690   96.4540   85.9240 H   0  0  0  0  0
   95.8890   95.0530   86.3120 H   0  0  0  0  0
 58  1  1  0  0  0
 47  1  1  0  0  0
  1  2  1  0  0  0
  2  5  1  0  0  0
  2  3  1  0  0  0
  4  3  2  0  0  0
  3  6  1  0  0  0
  7  6  1  0  0  0
 10  7  1  0  0  0
  7  8  1  0  0  0
 11  8  1  0  0  0
  8  9  2  0  0  0
 43 11  1  0  0  0
 11 12  1  0  0  0
 12 13  1  0  0  0
 12 15  1  0  0  0
 16 13  1  0  0  0
 13 14  2  0  0  0
 30 16  1  0  0  0
 16 17  2  0  0  0
 18 17  1  0  0  0
 17 20  1  0  0  0
 19 18  2  0  0  0
 18 21  1  0  0  0
 21 22  1  0  0  0
 21 25  1  0  0  0
 24 22  1  0  0  0
 22 23  1  0  0  0
 25 26  1  0  0  0
 26 28  1  0  0  0
 26 27  2  0  0  0
 28 29  1  0  0  0
 31 30  1  0  0  0
 36 31  2  0  0  0
 32 31  1  0  0  0
 33 32  2  0  0  0
 34 33  1  0  0  0
 37 34  1  0  0  0
 34 35  2  0  0  0
 35 36  1  0  0  0
 38 37  1  0  0  0
 41 38  1  0  0  0
 40 38  2  0  0  0
 38 39  2  0  0  0
 42 41  1  0  0  0
 43 44  1  0  0  0
 45 44  1  0  0  0
 45 46  1  0  0  0
 48 47  1  0  0  0
 54 48  2  0  0  0
 48 49  1  0  0  0
 50 49  1  0  0  0
 49 51  2  0  0  0
 52 50  1  0  0  0
 50 53  2  0  0  0
 51 57  1  0  0  0
 55 52  1  0  0  0
 54 52  1  0  0  0
 53 56  1  0  0  0
 56 57  2  0  0  0
 59 58  2  0  0  0
 58 60  1  0  0  0
 62 60  1  0  0  0
 60 61  1  0  0  0
 67 62  1  0  0  0
 62 63  1  0  0  0
 64 63  1  0  0  0
 65 64  1  0  0  0
 65 66  1  0  0  0
 69 67  1  0  0  0
 67 68  2  0  0  0
 71 69  1  0  0  0
 70 69  1  0  0  0
 72 71  1  0  0  0
 77 71  1  0  0  0
 73 72  1  0  0  0
 75 73  1  0  0  0
 73 74  2  0  0  0
 76 75  1  0  0  0
 78 77  2  0  0  0
 77 79  1  0  0  0
 81 79  1  0  0  0
 79 80  1  0  0  0
 89 81  1  0  0  0
 81 82  1  0  0  0
 82 83  1  0  0  0
 84 83  2  0  0  0
 83 88  1  0  0  0
 84 85  1  0  0  0
 85 86  2  0  0  0
 86 87  1  0  0  0
 88 87  2  0  0  0
 91 89  1  0  0  0
 89 90  2  0  0  0
 92 91  1  0  0  0
 93 91  1  0  0  0
M  RAD 32   1   2   6   3  11   2  21   2  25   3  30   3  32   2  33   2  35   2  36   2  43   3  44   3  46   4  47   3  51   2  53   2  54   2  56   2  57   2  62   2  63   3  64   3  66   4  71   2  72   3  81   2  82   3  84   2  85   2  86   2  87   2  88   2
M  END
>  <Vina Binding Affinity>
-7.2

$$$$
